Version 4
SHEET 1 1312 844
WIRE 976 -240 320 -240
WIRE -32 -176 -528 -176
WIRE -16 -176 -32 -176
WIRE 432 -176 -16 -176
WIRE 448 -176 432 -176
WIRE 1040 -176 448 -176
WIRE 1056 -176 1040 -176
WIRE -16 -128 -16 -176
WIRE 432 -128 432 -176
WIRE 1040 -128 1040 -176
WIRE -32 -64 -32 -176
WIRE -16 -64 -32 -64
WIRE 320 -64 320 -240
WIRE 320 -64 48 -64
WIRE 368 -64 320 -64
WIRE 448 -64 448 -176
WIRE 448 -64 432 -64
WIRE 976 -64 976 -240
WIRE 1056 -64 1056 -176
WIRE 1056 -64 1040 -64
WIRE -16 0 -192 0
WIRE 48 0 48 -64
WIRE 48 0 -16 0
WIRE 432 96 432 0
WIRE 432 96 224 96
WIRE 688 96 432 96
WIRE 1040 144 1040 0
WIRE 1200 144 1040 144
WIRE 224 240 224 96
WIRE 688 240 688 96
WIRE 688 256 688 240
WIRE 160 304 64 304
WIRE 448 304 448 -64
WIRE 448 304 224 304
WIRE 688 304 448 304
WIRE 832 304 752 304
WIRE 1040 352 1040 144
WIRE 1040 352 944 352
WIRE 224 400 224 368
WIRE 720 400 224 400
WIRE 944 400 944 352
WIRE 944 400 864 400
WIRE 1040 400 1040 352
WIRE 224 464 224 400
WIRE 976 464 224 464
WIRE 1072 464 1040 464
WIRE 224 528 224 464
WIRE 688 528 688 368
WIRE 688 528 608 528
WIRE -480 560 -528 560
WIRE 224 592 208 592
WIRE 608 592 608 528
WIRE 608 592 288 592
WIRE 624 592 608 592
WIRE 704 592 688 592
WIRE -480 608 -480 560
WIRE -480 752 -480 688
WIRE -480 752 -528 752
WIRE 208 752 208 592
WIRE 208 752 -480 752
WIRE 224 752 224 656
WIRE 224 752 208 752
WIRE 688 752 688 656
WIRE 688 752 224 752
WIRE 704 752 704 592
WIRE 704 752 688 752
WIRE 1040 752 1040 528
WIRE 1040 752 704 752
WIRE 1072 752 1072 464
WIRE 1072 752 1040 752
FLAG -528 -176 vdd
IOPIN -528 -176 BiDir
FLAG 1200 144 vout
IOPIN 1200 144 Out
FLAG -192 0 ibp
IOPIN -192 0 In
FLAG 64 304 vip
IOPIN 64 304 In
FLAG 832 304 vim
IOPIN 832 304 In
FLAG -528 752 vss
IOPIN -528 752 BiDir
FLAG -528 560 ibm
IOPIN -528 560 In
SYMBOL CMOSP 720 304 M0
WINDOW 39 136 39 Bottom 2
SYMATTR SpiceLine w=60 l=5 m=1
SYMATTR InstName X1
SYMBOL CMOSP 192 304 R0
WINDOW 39 133 50 Bottom 2
SYMATTR SpiceLine w=60 l=5 m=1
SYMATTR InstName X2
SYMBOL CMOSN 672 592 R0
WINDOW 39 109 -17 Bottom 2
SYMATTR SpiceLine w=32 l=4 m=1
SYMATTR InstName X3
SYMBOL CMOSN 240 592 M0
WINDOW 39 115 -17 Bottom 2
SYMATTR SpiceLine w=32 l=4 m=1
SYMATTR InstName X4
SYMBOL CMOSP 400 -64 R0
WINDOW 39 158 -13 Bottom 2
SYMATTR SpiceLine w=72 l=3 m=1
SYMATTR InstName X5
SYMBOL CMOSN 1024 464 R0
WINDOW 39 119 -14 Bottom 2
SYMATTR SpiceLine w=64 l=4 m=1
SYMATTR InstName X6
SYMBOL CMOSP 1008 -64 R0
WINDOW 39 141 -24 Bottom 2
SYMATTR SpiceLine w=64 l=2 m=1
SYMATTR InstName X7
SYMBOL CMOSP 16 -64 M0
WINDOW 39 136 31 Bottom 2
SYMATTR SpiceLine w=32 l=8 m=1
SYMATTR InstName X8
SYMBOL res 816 384 R90
WINDOW 0 0 56 VBottom 2
WINDOW 3 32 56 VTop 2
SYMATTR InstName RC
SYMATTR Value 10
SYMBOL cap 864 384 R90
WINDOW 0 0 32 VBottom 2
WINDOW 3 32 32 VTop 2
SYMATTR InstName CC
SYMATTR Value {cc}
SYMBOL res -496 592 R0
SYMATTR InstName R2
SYMATTR Value 0.1
