Version 4.1
SHEET 1 880 680
WIRE 112 16 -80 16
WIRE 208 16 112 16
WIRE 320 16 208 16
WIRE 416 16 320 16
WIRE 512 16 416 16
WIRE 640 16 512 16
WIRE 112 32 112 16
WIRE 208 32 208 16
WIRE 320 32 320 16
WIRE 416 32 416 16
WIRE 640 80 640 16
WIRE -80 112 -80 16
WIRE 512 128 512 16
WIRE 112 144 112 112
WIRE 128 144 112 144
WIRE 256 144 192 144
WIRE 320 144 320 112
WIRE 320 144 256 144
WIRE 208 160 208 112
WIRE 336 160 208 160
WIRE 416 160 416 112
WIRE 416 160 400 160
WIRE 480 160 416 160
WIRE 608 160 544 160
WIRE 640 160 608 160
WIRE 112 192 112 144
WIRE 416 192 416 160
WIRE 208 240 208 160
WIRE 208 240 176 240
WIRE 256 240 256 144
WIRE 352 240 256 240
WIRE -80 320 -80 192
WIRE 112 320 112 288
WIRE 112 320 -80 320
WIRE 256 320 112 320
WIRE 416 320 416 288
WIRE 416 320 256 320
WIRE 512 320 512 192
WIRE 512 320 416 320
WIRE 256 352 256 320
FLAG 256 352 0
FLAG 608 160 out
SYMBOL npn 352 192 R0
SYMATTR InstName Q1
SYMATTR Value 2N2222
SYMBOL npn 176 192 M0
SYMATTR InstName Q2
SYMATTR Value 2N2222
SYMBOL res 192 16 R0
SYMATTR InstName R1
SYMATTR Value 680k
SYMBOL res 304 16 R0
SYMATTR InstName R2
SYMATTR Value 680k
SYMBOL cap 192 128 R90
WINDOW 0 0 32 VBottom 2
WINDOW 3 32 32 VTop 2
SYMATTR InstName C1
SYMATTR Value 1n
SYMBOL cap 400 144 R90
WINDOW 0 0 32 VBottom 2
WINDOW 3 32 32 VTop 2
SYMATTR InstName C2
SYMATTR Value 1n
SYMBOL voltage -80 96 R0
WINDOW 123 0 0 Left 0
WINDOW 39 0 0 Left 0
SYMATTR InstName V1
SYMATTR Value 3.3
SYMBOL res 96 16 R0
SYMATTR InstName R3
SYMATTR Value 100k
SYMBOL res 400 16 R0
SYMATTR InstName R4
SYMATTR Value 100k
SYMBOL Comparators\\MAX9062 512 160 R0
SYMATTR InstName U1
SYMBOL res 624 64 R0
SYMATTR InstName R5
SYMATTR Value 22k
TEXT -360 152 Left 2 !.tran 0.01 uic
